# generated using pymatgen
data_HfW2
_symmetry_space_group_name_H-M   'P 1'
_cell_length_a   7.59000000
_cell_length_b   7.59000000
_cell_length_c   7.59000000
_cell_angle_alpha   90.00000000
_cell_angle_beta   90.00000000
_cell_angle_gamma   90.00000000
_symmetry_Int_Tables_number   1
_chemical_formula_structural   HfW2
_chemical_formula_sum   'Hf8 W16'
_cell_volume   437.24547900
_cell_formula_units_Z   8
loop_
 _symmetry_equiv_pos_site_id
 _symmetry_equiv_pos_as_xyz
  1  'x, y, z'
loop_
 _atom_site_type_symbol
 _atom_site_label
 _atom_site_symmetry_multiplicity
 _atom_site_fract_x
 _atom_site_fract_y
 _atom_site_fract_z
 _atom_site_occupancy
  Hf  Hf0  1  0.37500000  0.37500000  0.37500000  1.0
  Hf  Hf1  1  0.87500000  0.87500000  0.37500000  1.0
  Hf  Hf2  1  0.87500000  0.37500000  0.87500000  1.0
  Hf  Hf3  1  0.62500000  0.62500000  0.62500000  1.0
  Hf  Hf4  1  0.62500000  0.12500000  0.12500000  1.0
  Hf  Hf5  1  0.37500000  0.87500000  0.87500000  1.0
  Hf  Hf6  1  0.12500000  0.62500000  0.12500000  1.0
  Hf  Hf7  1  0.12500000  0.12500000  0.62500000  1.0
  W  W8  1  0.00000000  0.00000000  0.00000000  1.0
  W  W9  1  0.25000000  0.25000000  0.00000000  1.0
  W  W10  1  0.25000000  0.00000000  0.25000000  1.0
  W  W11  1  0.00000000  0.75000000  0.75000000  1.0
  W  W12  1  0.00000000  0.25000000  0.25000000  1.0
  W  W13  1  0.75000000  0.75000000  0.00000000  1.0
  W  W14  1  0.75000000  0.00000000  0.75000000  1.0
  W  W15  1  0.00000000  0.50000000  0.50000000  1.0
  W  W16  1  0.25000000  0.75000000  0.50000000  1.0
  W  W17  1  0.25000000  0.50000000  0.75000000  1.0
  W  W18  1  0.75000000  0.25000000  0.50000000  1.0
  W  W19  1  0.75000000  0.50000000  0.25000000  1.0
  W  W20  1  0.50000000  0.00000000  0.50000000  1.0
  W  W21  1  0.50000000  0.75000000  0.25000000  1.0
  W  W22  1  0.50000000  0.25000000  0.75000000  1.0
  W  W23  1  0.50000000  0.50000000  0.00000000  1.0
